<?xml version="1.0" encoding="UTF-8"?>

<!-- generated on 2022-04-11 14:44:15 by Eclipse SUMO GUI Version 1.12.0
-->

<configuration xmlns:xsi="http://www.w3.org/2001/XMLSchema-instance" xsi:noNamespaceSchemaLocation="http://sumo.dlr.de/xsd/sumoConfiguration.xsd">

    <input>
        <net-file value="C:\Users\seegras\Desktop\test.net.xml"/>
        <route-files value="C:\Users\seegras\Desktop\test.rou.xml"/>
    </input>

</configuration>
